<routes>

<vType id="car" vClass="passenger" length="4.4" width="1.8" minGap="2.8" accel="2.4" decel="4.5" tau="1.0" sigma="0.45" maxSpeed="33.33"/>
<vType id="taxi" vClass="taxi" length="4.4" width="1.8" minGap="2.6" accel="2.5" decel="4.6" tau="0.9" sigma="0.4" maxSpeed="33.33"/>
<vType id="truck" vClass="truck" length="8.5" width="2.5" minGap="4.2" accel="1.1" decel="4.0" tau="1.2" sigma="0.55" maxSpeed="25.00"/>
<vType id="bus" vClass="bus" length="10.5" width="2.5" minGap="4.4" accel="1.0" decel="4.0" tau="1.25" sigma="0.4" maxSpeed="22.22"/>
<vType id="tram" vClass="tram" length="22.0" width="2.4" minGap="5.5" accel="0.9" decel="3.0" tau="1.4" sigma="0.2" maxSpeed="16.67"/>
<vType id="light_rail" vClass="rail_urban" length="32.0" width="2.65" minGap="7.0" accel="0.8" decel="2.8" tau="1.5" sigma="0.2" maxSpeed="22.22"/>
<vType id="train" vClass="rail" length="80.0" width="2.9" minGap="12.0" accel="0.55" decel="2.2" tau="1.8" sigma="0.15" maxSpeed="27.78"/>
<vType id="emergency" vClass="emergency" length="5.0" width="2.1" minGap="2.2" accel="3.0" decel="5.0" tau="0.75" sigma="0.25" maxSpeed="38.89"/>

<person id="ped_0" depart="0.00">
        <walk edges="101085459#2 101085459#1 -136056040#2 101085370 135883976#3 101085276#2 101085276#1 131620420#6 131620461#0 131620461#1 131620461#2 131620461#3 131620461#4 131620461#5 131620461#6 131620419#9 131620419#10 131620419#11 -139693509#1 -139693509#0 107899087 998124420 82828681#0 82828681#1 82828681#2 82828689 82828687#0 82828687#1 1193886813#2 1193886813#1 1193886813#0 -82828683#2" />
    </person>
    
<person id="ped_1" depart="9.00">
        <walk edges="229843809 -82095614#3 -82095614#2 -82095601 -82095604#14 -134219629#0 -134219629#1 107899092 229843820#1 229843820#2 131620419#0 1001250769#1 1001250771#2 1001250768#2 162768620" />
    </person>
    
<person id="ped_2" depart="18.00">
        <walk edges="82023269#8 82023269#7 107899087 -139693509#0 -139693509#1 131620419#11 -998112067#3 -998112067#2 -1494627808#1" />
    </person>
    
<person id="ped_3" depart="27.00">
        <walk edges="131620419#3 131620419#2 131620419#1 131620419#0 1001250769#1 1001250767#1 82827667#1 82827667#2 1001250765#1 1281218624 1281218623 1336423742 221613768#1 221613768#0 -131606340" />
    </person>
    
<person id="ped_4" depart="36.00">
        <walk edges="-82827661#2 83055925#0 83055925#1 82828687#1 -82095614#5 -82095614#3 -82095614#2 -82095601 -82095604#14 134219629#0" />
    </person>
    
<person id="ped_5" depart="45.00">
        <walk edges="-82827668 131620459#1 131620459#0 1193885144#1 1193885144#2 131620434#2 230631730#1 1193885142#2 145466562#0" />
    </person>
    
<person id="ped_6" depart="54.00">
        <walk edges="1193886812#0 1193886813#0 -82828683#2 -82828683#3 -82828683#4 -82095604#7 -82095604#8 1193886810#3 1193886810#2 1193886810#1 1193886810#0 -134219625 229843808 -134219629#1 107899092 229843820#1 229843820#2 131620419#0 1001250769#1 1001250771#2 1001250768#2 162768620 -38084660#1 -38084660#2 -452544756#0" />
    </person>
    
<person id="ped_7" depart="63.00">
        <walk edges="82829498#11 -82829498#10 -82829498#9 -82829498#7 107899087 998124420 82828681#0 82828681#1 83055926#0 -229843809 1193886814#0 1193886814#1 1193886816#2 -82828683#3 -82828683#4 -82095604#7 -82095604#8 1193886810#3 1193886810#2 1193886810#1" />
    </person>
    
<person id="ped_8" depart="72.00">
        <walk edges="38084660#1 162768628#1 162768628#2 131606342#0 -131606342#1 -131606342#2 162768621 162768633#0 162768653 131606321#2 131606321#1 131606321#0 131620432 131620419#7 131620419#8 131620419#9 131620419#10 131620419#11 131620419#12 131620419#13 131620419#14 -221613770#1 -221613770#2 221613770#3" />
    </person>
    
<person id="ped_9" depart="81.00">
        <walk edges="768738669#1 154223001#6 154223001#4 154223001#3 154223001#2 154223001#1 154222985#1 154222985#0 154229521#5 154229521#4 154229521#3 154222995#4 154222995#5 143010425#2 143029975#1" />
    </person>
    
<person id="ped_10" depart="90.00">
        <walk edges="-144891641#3 -144891641#1 230631729#1 230631729#0 1193885142#0 131620433#0 131620434#2 1193885144#2 82827665#1 -82827657#1 -229843824#0 -82827661#0 -82023267#2 -82023267#3 -82023269#2 82023269#3 -82023269#4 107899032 -82829498#5" />
    </person>
    
<person id="ped_11" depart="99.00">
        <walk edges="1280363865#2 1280363856 145466562#0 1193885142#2 230631730#1 131620433#2 1193885143#2 1193885143#1 131243222#4 131243222#3 -82826037#5 -82826037#4 -82826037#3" />
    </person>
    
<person id="ped_12" depart="108.00">
        <walk edges="101085276#4 131620420#7 131620420#6 131620461#0 131620461#1 131620461#2 131620461#3 131620461#4 131620461#5 131620461#6 131620419#8 131620419#7 131620432 131606321#0 131606321#1 131606321#2 162768653 162768633#0 162768621 -131606342#2 -131606342#1 131606342#0 162768628#2 162768628#1 162768620 1001250768#1 780532957#2 780532957#1 1001250765#3 1001250765#2 1001250765#1 82827667#2" />
    </person>
    
<person id="ped_13" depart="117.00">
        <walk edges="-82023267#5 -82023267#7 998124420 107899087 -139693509#0 -139693509#1 131620419#12 131620419#13 131620419#14 -221613770#1 221613770#2" />
    </person>
    
<person id="ped_14" depart="126.00">
        <walk edges="-764165836 -221613770#1 131620419#14 131620419#13 131620419#12 -139693509#1 -139693509#0 -82829498#7 -107899106 -82023269#9 -82023269#10 82023269#11 82023269#12 -1494627787 83055926#3 83055926#4 131620419#2 131620419#1 229843820#2 229843821 131243137#2" />
    </person>
    
<person id="ped_15" depart="135.00">
        <walk edges="-82829498#13 1494627791#0 -229894146 131620419#4 131620419#5 131606321#0 131606321#1 131606321#2 162768653 162768633#0 162768621 -131606342#2" />
    </person>
    
<person id="ped_16" depart="144.00">
        <walk edges="-82826037#4 -82826037#5 131243222#3 -134219656#0 -82095604#0 82095604#1 -82095604#3 -82095604#4 82095614#8 82828683#1" />
    </person>
    
<person id="ped_17" depart="153.00">
        <walk edges="82095614#6 -82095614#7 82095614#8 -82095604#4 -82095604#3 -82827668 131620459#1 131620459#0 131620436#2" />
    </person>
    
<person id="ped_18" depart="162.00">
        <walk edges="144904133#0 144904133#1 1020311594#2 131620434#2 1193885144#2 1193885144#1 131620459#0 131620459#1 131620459#2 131620459#3 131620459#4 -107899115#0 82095604#11" />
    </person>
    
<person id="ped_19" depart="171.00">
        <walk edges="131606304 131606303 131606298 -131606342#1 -131606342#2 162768621 162768633#0 162768653 131606321#2 131606321#1 131606321#0 131620432 131620419#7 131620419#8 131620419#9 131620419#10 131620419#11 -139693509#1 -139693509#0 82829498#5 107899032 -82023269#4 82023269#3 -82023269#2 -82023267#3 82095611#0 229843813 139694316 -82827661#2 -82827661#3" />
    </person>
    
<person id="ped_20" depart="180.00">
        <walk edges="998112067#3 131620419#11 -139693509#1 -139693509#0 107899087 998124420 82828681#0 82828681#1 83055926#0 -229843809 1193886814#0 1193886814#1 1193886816#2 -82828683#3 -82828683#4 -82095604#6 -134219637#0 134219637#1" />
    </person>
    
<person id="ped_21" depart="189.00">
        <walk edges="-162768616#2 -162768616#3 -162768616#4 162768617 162768653 131606321#2 131606321#1 131606321#0 131620419#5 131620419#4 131620419#3 131620419#2 131620419#1 229843820#2 229843820#1 107899092 -134219629#1 -134219621#1" />
    </person>
    
<person id="ped_22" depart="198.00">
        <walk edges="322870821 -139693509#0 -82829498#7 -107899106 -82023269#9 -82023269#10 82023269#11 82023269#12 82829498#14 1494627791#0 -229894146 131620419#3" />
    </person>
    
<person id="ped_23" depart="207.00">
        <walk edges="-134219650#1 -134219617 229619836 -134219656#2 -134219656#3 -82826037#5 131243222#2" />
    </person>
    
<person id="ped_24" depart="216.00">
        <walk edges="998112067#1 131620419#9 131620461#6 131620461#5 131620461#4 131620461#3 131620461#2 131620461#1 131620461#0 131620420#6 101085276#1 101085276#2 135883976#3 135883976#2 135883976#1" />
    </person>
    
<person id="ped_25" depart="225.00">
        <walk edges="83055926#2 83055926#1 83055926#0 82828695#0 82828693#1 82828693#0 82095611#1 229843813 139694316 -82827661#1 -82827661#0 -82023267#1 131620430#0 221613769 764170863#1 764170863#2" />
    </person>
    
<person id="ped_26" depart="234.00">
        <walk edges="-107899106 -82829498#7 -139693509#0 -139693509#1 131620419#11 131620419#10 131620419#9 131620461#6 131620461#5 131620461#4 131620461#3 131620461#2 131620461#1 131620461#0 131620420#6 101085276#1 101085276#2 135883976#3 135883976#2 207138897#2 207138897#1" />
    </person>
    
<person id="ped_27" depart="243.00">
        <walk edges="-229843809 83055926#0 82828681#1 82828681#0 998124420 107899087 -139693509#0 -139693509#1 131620419#11 131620419#10 131620419#9 131620461#6 131620461#5 131620461#4 131620461#3 131620461#2 131620461#1 131620461#0 131620420#6 131620420#7" />
    </person>
    
<person id="ped_28" depart="252.00">
        <walk edges="131620435#0 131620435#1 131620435#2 131620420#8 131620420#7 131620420#6 131620461#0 131620461#1 131620461#2 131620461#3 131620461#4 131620461#5 131620461#6 131620419#9 131620419#10 131620419#11 -139693509#1 -139693509#0 107899087 998124420 -82023267#7 82828695#2" />
    </person>
    
<person id="ped_29" depart="261.00">
        <walk edges="134219617 229619836 -134219656#1 -134219656#0 -82095604#0 82095604#1 -82095604#3 -82095604#4 82095614#8 -82095614#7 -82095614#6 82828687#1 82828687#0 82828689 82828681#2 82828681#1 82828681#0 998124420 -82023269#6" />
    </person>
    
<person id="ped_30" depart="270.00">
        <walk edges="1494627793 1494627791#2 1494627791#1 1494627791#0 -229894146 131620419#4 131620419#5 131606321#0 131606321#1 131606321#2 162768653 162768617 -162768616#4 -162768616#3 -162768616#2 -162768616#0 431917116#2 -431917116#1" />
    </person>
    
<person id="ped_31" depart="279.00">
        <walk edges="-100873928#0 162768628#1 162768620 1001250768#2 1001250771#2 102153318#2 131620459#5 131620459#4 131620459#3 131620459#2 131620459#1 131620459#0 131620436#2 131620436#1 131620436#0 1193885143#0" />
    </person>
    
<person id="ped_32" depart="288.00">
        <walk edges="-123338829 1347577127 414530643 131620420#5 131620461#0 131620461#1 131620461#2 131620461#3 131620461#4 131620461#5 131620461#6 131620419#9 131620419#10 131620419#11 -139693509#1 -139693509#0 82829498#5 107899032 -82023269#4 82023269#3 -82023269#2 -82023267#3 82095611#0 229843813 139694316 -82827661#2 -82827661#3 82827659" />
    </person>
    
<person id="ped_33" depart="297.00">
        <walk edges="107899115#1 1193886809#1 1193886808#1 1193886810#3 -82095604#8 -82095604#7 -82095604#6 -134219637#0 -134219638#0" />
    </person>
    
<person id="ped_34" depart="306.00">
        <walk edges="82023267#0 -82023267#1 -82827661#0 -82827661#1 -82827661#2 83055925#0 83055925#1 82828687#1" />
    </person>
    
<person id="ped_35" depart="315.00">
        <walk edges="-1494627808#0 -1494627808#1 -998112067#2 -998112067#3 131620419#11 -139693509#1 -139693509#0 -82829498#7 -107899106 -82023269#9 -82023269#10 82023269#11 82023269#12 -1494627787 83055926#3 83055926#4 131620419#2 131620419#1 131620419#0 1001250769#1 1001250771#2 1001250768#2 1001250768#1 780532957#2 780532957#1 1001250765#3 1281218621 1336423740#1 1336423740#0 1336423738" />
    </person>
    
<person id="ped_36" depart="324.00">
        <walk edges="131620419#4 131620419#3 131620419#2 131620419#1 131620419#0 1001250769#1 1001250764 131243222#1 131243222#2 -82826037#5" />
    </person>
    
<person id="ped_37" depart="333.00">
        <walk edges="131620421#2 764170863#2 764170863#1 221613769 131620430#0 -82023267#1 -82827661#0 -82827661#1 -82827661#2 83055925#0 -83055927#0 -82095605#0 -82095604#3 82095604#1 -82095604#0 -134219656#0 -134219656#1 229619836 -134219617 134219650#1" />
    </person>
    
<person id="ped_38" depart="342.00">
        <walk edges="-229843827#0 -82023267#8 82828681#0 82828681#1 83055926#0 -229843809 1193886814#0 1193886814#1 1193886816#2 -82828683#3 -82828683#4" />
    </person>
    
<person id="ped_39" depart="351.00">
        <walk edges="-82829498#14 -1494627787 83055926#2 83055926#1 83055926#0 82828681#2 82828689 82828687#0 82828687#1 -82095614#6 -82095614#7 82095614#8 -82095604#4 -82095604#3 -82827668" />
    </person>
    
<person id="ped_40" depart="360.00">
        <walk edges="-82829498#13 82829498#14 -1494627787 83055926#2 83055926#1 -229843809 1193886814#0 1193886814#1 1193886816#2 -82828683#3 -82828683#4 -82095604#7 82095604#8" />
    </person>
    
<person id="ped_41" depart="369.00">
        <walk edges="764165839 -221613770#1 131620419#14 131620419#13 131620419#12 131620419#11 131620419#10 131620419#9 131620461#6 131620461#5 131620461#4 131620461#3 131620461#2 131620461#1 131620461#0 131620420#6 101085276#1 101085276#2 135883976#3 101085370 -136056040#2 136056040#1 -136056040#0" />
    </person>
    
<person id="ped_42" depart="378.00">
        <walk edges="38084660#2 -38084660#1 162768620 1001250768#2 1001250771#2 1001250769#1 131620419#0 229843820#2 229843820#1 107899092 -134219629#1 229843808 -134219625 1193886810#0 1193886810#1 1193886810#2 1193886810#3 -82095604#8 -82095604#7 -82095604#6 82095604#5 -82095604#4" />
    </person>
    
<person id="ped_43" depart="387.00">
        <walk edges="-166980845 166980845 136056040#1 -136056040#2 101085370 135883976#3 101085276#2 -123338829 1347577127 101085369#1 131620420#3" />
    </person>
    
<person id="ped_44" depart="396.00">
        <walk edges="131620419#5 131620419#4 131620419#3 131620419#2 -82095618#1 82095618#2 -82095614#1 -82095614#2 1193886816#0 1193886815#3 1193886815#2 1193886815#1 1193886815#0 82095614#8 -82095604#4 -82095604#3 -82827668 131620459#1" />
    </person>
    
<person id="ped_45" depart="405.00">
        <walk edges="221613770#2 -221613770#1 131620419#14 131620419#13 131620419#12 131620419#11 131620419#10 131620419#9 131620419#8 131620419#7 131620432 131606321#0 131606321#1 131606321#2 162768653 162768617 162768616#4" />
    </person>
    
<person id="ped_46" depart="414.00">
        <walk edges="131606321#2 131606321#1 131606321#0 131620419#5 131620419#4 131620419#3 131620419#2 -82095618#1 82095618#2 -82095614#1 -82095614#2 1193886816#0 1193886816#1 1193886816#2 1193886811" />
    </person>
    
<person id="ped_47" depart="423.00">
        <walk edges="-82095604#4 -82095605#0 -83055927#0 83055925#0 -82827661#2 -82827661#1 -82827661#0 -82023267#1 131620430#0 131620430#1 131620430#2 131620430#3" />
    </person>
    
<person id="ped_48" depart="432.00">
        <walk edges="131620419#3 83055926#4 83055926#3 -1494627787 82023269#12 82023269#11 -82023269#10 -82023269#9 -107899106 -82829498#7 -139693509#0 -139693509#1 131620419#12 1011898617 1011898618" />
    </person>
    
<person id="ped_49" depart="441.00">
        <walk edges="-998112067#3 131620419#11 -139693509#1 -139693509#0 107899087 998124420 82828681#0 82828681#1 82828681#2 82828689 82828687#0 82828687#1 -82095614#6 -82095614#7 82095614#8 -82095604#4 -82095604#3 82095604#1 -82095604#0 -134219656#0 131243222#3 -82826037#5 -82826037#4 82826037#3" />
    </person>
    
<person id="ped_50" depart="450.00">
        <walk edges="131620423 131620435#1 131620435#2 131620420#8 131620420#7 131620420#6 131620461#0 131620461#1 131620461#2 131620461#3 131620461#4 131620461#5 131620461#6 131620419#9 131620419#10 131620419#11 131620419#12 131620419#13 131620419#14 131620419#15 131620419#16 -82829498#1 131620430#3 131620430#2 131620430#1 221613769 764170863#1 764170863#2" />
    </person>
    
<person id="ped_51" depart="459.00">
        <walk edges="1428304973 131620461#2 131620461#3 131620461#4 131620461#5 131620461#6 131620419#9 131620419#10 131620419#11 -139693509#1 -139693509#0 107899087 998124420 82828681#0 82828681#1 83055926#0 -229843809 -82095614#3 -82095614#2 -82095601 -82095604#14 -134219629#0" />
    </person>
    
<person id="ped_52" depart="468.00">
        <walk edges="83055926#0 82828681#2 82828689 82828687#0 82828687#1 -82095614#6 -82095614#7 82095614#8 -82095604#4 -82095604#3 82095604#1 -82095604#0 -134219656#0 131243222#3 -82826037#5 -82826037#4 -102153349#0 82826040" />
    </person>
    
<person id="ped_53" depart="477.00">
        <walk edges="1336423738 1336423740#0 1336423740#1 1281218621 1001250765#3 780532957#1 780532957#2 1001250768#1 1001250768#2 1001250771#2 1001250769#1 131620419#0 229843820#2 229843820#1 107899092 -134219629#1 229843808 -134219625 1193886810#0 1193886810#1 1193886810#2 1193886810#3 -82095604#8 -82095604#7 -82095604#6 82095604#5 -82095604#4 -82095605#0 -82095605#1 -82827657#0" />
    </person>
    
<person id="ped_54" depart="486.00">
        <walk edges="131606321#0 131620419#5 131620419#4 131620419#3 131620419#2 -82095618#1 82095618#2 -82095614#1 -82095614#2 1193886816#0 1193886816#1 1193886816#2 -82828683#3 -82828683#4 -82095604#6 -134219637#0 -134219637#1 -134219638#1" />
    </person>
    
<person id="ped_55" depart="495.00">
        <walk edges="101085276#2 101085276#1 131620420#6 131620461#0 131620461#1 131620461#2 131620461#3 131620461#4 131620461#5 131620461#6 131620419#9 131620419#10 131620419#11 -139693509#1 -139693509#0 107899087 998124420 82828681#0 82828681#1 82828681#2 82828689 82828687#0 82828687#1 -82095614#6 -82095614#7 82095614#8 -82095604#4 -82095604#3 82095604#1 -82095604#0 -134219656#0 -134219656#1 229619836 -270391522#1 270391522#2" />
    </person>
    
<person id="ped_56" depart="504.00">
        <walk edges="131620435#1 131620435#2 131620420#8 131620420#7 131620420#6 131620461#0 131620461#1 131620461#2 131620461#3 131620461#4 131620461#5 131620461#6 131620419#8 131620419#7 131620432 131620419#5 131620419#4" />
    </person>
    
<person id="ped_57" depart="513.00">
        <walk edges="82829498#11 -82829498#10 -82829498#9 -82829498#7 -139693509#0 -139693509#1 131620419#11 131620419#10 131620419#9 131620419#8 998112066#1" />
    </person>
    
<person id="ped_58" depart="522.00">
        <walk edges="-452544747 -452544756#0 -38084660#2 -38084660#1 162768620 1001250768#1 780532957#2 780532957#1 1001250765#3 1001250765#2 106982932#1 106982932#0" />
    </person>
    
<person id="ped_59" depart="531.00">
        <walk edges="136573291#1 131620435#2 131620420#8 131620420#7 131620420#6 131620461#0 131620461#1 131620461#2 131620461#3 131620461#4 131620461#5 131620461#6 131620419#8 131620419#7 131620432 131620419#5 131620419#4 131620419#3 131620419#2 131620419#1 229843820#2 229843821" />
    </person>
    
<person id="ped_60" depart="540.00">
        <walk edges="-134219637#3 131620459#3 131620459#2 131620459#1 131620459#0 1193885144#1 1193885144#2 131620434#2 1020311594#2 144904133#1 144904133#0" />
    </person>
    
<person id="ped_61" depart="549.00">
        <walk edges="-516896263 -207138889#0 -136056132 -133010101#1 131620420#3 131620420#4 131620420#5 131620461#0 131620461#1 131620461#2 131620461#3 131620461#4 131620461#5 131620461#6 131620419#9 131620419#10 131620419#11 -139693509#1 -139693509#0 82829498#5 -82829498#3 82829498#2" />
    </person>
    
<person id="ped_62" depart="558.00">
        <walk edges="-146389951 144904133#1 1020311594#2 131620434#2 1193885144#2 1193885144#1 131620459#0 131620459#1 131620459#2 131620459#3 131620459#4 -107899115#0 -82095604#11" />
    </person>
    
<person id="ped_63" depart="567.00">
        <walk edges="1494627783#0 131620419#3 131620419#4 131620419#5 131606321#0 131606321#1 131606321#2 162768653 162768617" />
    </person>
    
<person id="ped_64" depart="576.00">
        <walk edges="-83055927#0 83055925#0 -82827661#2 139694316 229843813 82095611#0 -82023267#3 -82023269#2 82023269#3 -82023269#4 107899032 -229843826" />
    </person>
    
<person id="ped_65" depart="585.00">
        <walk edges="131620419#16 -82829498#1 131620430#3 131620430#2 131620430#1 131620430#0 82827665#0 82827665#1 1193885144#2 131620434#2 131620433#0 1193885142#0 230631729#0 230631729#1 -144891641#1 144891641#3" />
    </person>
    
<person id="ped_66" depart="594.00">
        <walk edges="134219656#3 -134219656#2 -134219656#1 131243222#4 1193885143#0 131620436#0 131620436#1 131620436#2 1193885144#1 82827665#1" />
    </person>
    
<person id="ped_67" depart="603.00">
        <walk edges="-84898479#1 -84898479#2 -84898479#3 -84898479#4 84898479#5 131620421#3 764170863#2 764170863#1 221613769 131620430#1 131620430#2 131620430#3 -82829498#1 131620419#16 131620419#15 131620419#14 131620419#13 131620419#12 131620419#11 131620419#10 131620419#9 131620419#8 131620419#7 131620432 131606321#0 131606321#1 131606321#2 162768653 162768633#0 162768621 131606297" />
    </person>
    
<person id="ped_68" depart="612.00">
        <walk edges="162768616#2 -162768616#3 -162768616#4 162768617 162768653 131606321#2 131606321#1 131606321#0 131620419#5 131620419#4 -229894146 1494627791#0 1494627791#1 1494627791#2 1494627791#3 107899039#0" />
    </person>
    
<person id="ped_69" depart="621.00">
        <walk edges="-136056040#2 101085370 135883976#3 101085276#2 101085276#1 131620420#6 131620461#0 131620461#1 131620461#2 131620461#3 131620461#4 131620461#5 131620461#6 131620419#9 131620419#10 131620419#11 131620419#12 131620419#13 131620419#14 131620419#15 131620419#16 -82829498#1 131620430#3 131620430#2 131620430#1 131620430#0 82827665#0 82827665#1 1193885144#1 131620436#2 131620436#1" />
    </person>
    
<person id="ped_70" depart="630.00">
        <walk edges="998112067#4 131620419#10 998112067#1" />
    </person>
    
<person id="ped_71" depart="639.00">
        <walk edges="-136056132 -133010101#1 131620420#3 131620420#4 131620420#5 131620461#0 131620461#1 131620461#2 131620461#3 131620461#4 131620461#5 131620461#6 131620419#9 131620419#10 131620419#11 -139693509#1 -139693509#0 107899087 998124420 82828681#0 82828681#1 82828681#2 82828689 82828687#0 82828687#1 -82095614#6 -82095614#7 82095614#8 -82095604#4 -82095605#0 -82095605#1 -82827657#0" />
    </person>
    
<person id="ped_72" depart="648.00">
        <walk edges="101085276#2 101085276#1 131620420#6 131620461#0 131620461#1 131620461#2 131620461#3 131620461#4 131620461#5 131620461#6 131620419#9 131620419#10 131620419#11 -139693509#1 -139693509#0 82829498#5 107899032 -82023269#4 82023269#3 -82023269#2 -82023267#3 82095611#0 229843813 139694316 -82827661#2 82827661#3" />
    </person>
    
<person id="ped_73" depart="657.00">
        <walk edges="82023267#3 -82023267#2 82023267#1" />
    </person>
    
<person id="ped_74" depart="666.00">
        <walk edges="1280363865#1 1280363862 1280363861#0 230631729#0 1193885142#0 131620433#0 131620434#2 1193885144#2 82827665#1 82827665#0 131620430#0 131620430#1 131620430#2 131620430#3 -82829498#1 131620419#16 131620419#15 131620419#14 131620419#13 131620419#12 131620419#11 131620419#10 131620419#9 131620461#6 131620461#5 131620461#4 131620461#3 131620461#2 131620461#1 131620461#0 131620420#5 131620420#4 131620420#3 -133010101#1 -136056132 -207138889#0 -516896263" />
    </person>
    
<person id="ped_75" depart="675.00">
        <walk edges="431917116#1 431917116#2 -162768616#0 -162768616#2 -162768616#3 -162768616#4 162768617 162768653 131606321#2 131606321#1 131606321#0 131620432 131620419#7 131620419#8 131620419#9 131620419#10 131620419#11 -139693509#1 -139693509#0 107899087 82023269#7 107899034" />
    </person>
    
<person id="ped_76" depart="684.00">
        <walk edges="101085369#1 414530643 131620420#5 131620461#0 131620461#1 131620461#2 131620461#3 131620461#4 131620461#5 131620461#6 131620419#9 131620419#10 131620419#11 -139693509#1 -139693509#0 -82829498#7 -107899106 -82023269#9 229894145 229894141 229894144#2 1494627791#7 1494627791#6" />
    </person>
    
<person id="ped_77" depart="693.00">
        <walk edges="1336423741 221613768#1 1336423742 1281218623 1281218624 1001250765#1 82827667#2 82827667#1 1001250767#1 1001250769#1 131620419#0 229843820#2 229843820#1 107899092 -134219629#1 229843808 -134219625 1193886810#0 1193886810#1 1193886810#2 1193886810#3 82095604#8" />
    </person>
    
<person id="ped_78" depart="702.00">
        <walk edges="131620419#5 131620432 131620419#7 131620419#8 131620461#6 131620461#5 131620461#4 131620461#3 131620461#2 131620461#1 131620461#0 131620420#6 131620420#7 131620420#8 131620435#2 131620435#1 131620423 131620427 101085476" />
    </person>
    
<person id="ped_79" depart="711.00">
        <walk edges="229843815 -82095604#6 -82828683#4 -82828683#3 1193886816#2 1193886814#1 1193886814#0 -229843809 83055926#0 82828681#1 82828681#0 998124420 107899087 -139693509#0 -139693509#1 131620419#11 131620419#10 131620419#9 131620461#6 131620461#5 1428304974" />
    </person>
    
<person id="ped_80" depart="720.00">
        <walk edges="131620420#0 131620420#1 133010101#0 -133010101#1 131620420#3 131620420#4 131620420#5 131620461#0 131620461#1 131620461#2 131620461#3 131620461#4 131620461#5 131620461#6 131620419#9 131620419#10 131620419#11 -139693509#1 -139693509#0 82829498#5 107899032 -107899088#0" />
    </person>
    
<person id="ped_81" depart="729.00">
        <walk edges="-136573291#1 131620435#2 131620420#8 131620420#7 131620420#6 131620461#0 131620461#1 131620461#2 131620461#3 131620461#4 131620461#5 131620461#6 131620419#9 131620419#10 131620419#11 -139693509#1 -139693509#0 107899087 998124420 82023267#7" />
    </person>
    
<person id="ped_82" depart="738.00">
        <walk edges="107899115#2 107899115#1 -82095604#11 -82095604#13 82095604#14" />
    </person>
    
<person id="ped_83" depart="747.00">
        <walk edges="82095604#14 -134219629#0 -134219629#1 107899092 229843820#1 229843820#2 131620419#0 1001250769#1 1001250764 131243222#1 131243222#2 -82826037#5 -82826037#4 -82826037#3" />
    </person>
    
<person id="ped_84" depart="756.00">
        <walk edges="265773571 1001250767#0 1001250769#1 131620419#0 131620419#1 131620419#2 83055926#4 83055926#3 -1494627787 82023269#12 229843827#2 -229843827#1 229843827#0 82023267#8" />
    </person>
    
<person id="ped_85" depart="765.00">
        <walk edges="-452544747 -452544756#0 -38084660#2 -38084660#1 162768620 1001250768#2 1001250771#2 1001250769#1 131620419#0 229843820#2 229843820#1 107899092 -134219629#1 229843808 -134219625 1193886810#0 1193886810#1 1193886810#2 1193886810#3 -82095604#8 -82095604#7 -82095604#6 82095604#5 -82095604#4 -82095605#0 -82095605#1 82827659" />
    </person>
    
<person id="ped_86" depart="774.00">
        <walk edges="-131606278#1 131606288 131606294 131606301 -131606342#2 162768621 162768633#0 162768653 131606321#2 131606321#1 131606321#0 131620419#5 131620419#4 -229894146 1494627791#0 82829498#14 -1494627787 83055926#2 83055926#1 229843809" />
    </person>
    
<person id="ped_87" depart="783.00">
        <walk edges="1193886808#0 1193886808#1 1193886810#3 -82095604#8 -82095604#7 -82828683#4 -82828683#3 -82828683#2 1193886813#0 1193886813#1 1193886813#2 82828687#1 83055925#1 83055925#0 -82827661#2 82827661#1" />
    </person>
    
<person id="ped_88" depart="792.00">
        <walk edges="-82828683#1 -82828683#2 1193886816#2 1193886816#1 1193886816#0 -82095614#2 -82095614#1 82095618#2 -82095618#1 131620419#2 131620419#3 131620419#4 131620419#5 131606321#0 131606321#1 131606321#2 162768653 162768617 -162768616#4 -162768616#3 -162768616#2 -162768616#0 431917116#2 431917116#1" />
    </person>
    
<person id="ped_89" depart="801.00">
        <walk edges="131620439 131620421#0 131620421#1 131620421#2 764170863#2 764170863#1 221613769 131620430#1 229843811 -82023267#4 107899088#1" />
    </person>
    
<person id="ped_90" depart="810.00">
        <walk edges="338089194 -134219656#2 -134219656#1 -134219656#0 -82095604#0 82095604#1 -82095604#3 -82095604#4 82095614#8 -82095614#7 -82095614#6 82828687#1 82828687#0 82828689 82828681#2 82828681#1 82828681#0 998124420 107899087 -82829498#7 -82829498#9 -82829498#10 -82829498#11" />
    </person>
    
<person id="ped_91" depart="819.00">
        <walk edges="-131606278#0 131606304 131606303 131606298 131606342#0 162768628#2 162768628#1 162768620 1001250768#2 1001250771#2 1001250769#1 131620419#0 229843820#2 229843820#1 107899092 -134219629#1 229843808 -134219625 1193886810#0 1193886810#1 1193886810#2 1193886810#3 -82095604#8 -82095604#7" />
    </person>
    
<person id="ped_92" depart="828.00">
        <walk edges="83055923 82828693#1 82828693#2 229843812 82828681#0 998124420 107899087 -139693509#0 -322870821 -378293886#3 1011903165" />
    </person>
    
<person id="ped_93" depart="837.00">
        <walk edges="82827672 -82827659 -82827661#3 -82827661#2 139694316 229843813 82095611#0 -82023267#3 -229843819" />
    </person>
    
<person id="ped_94" depart="846.00">
        <walk edges="83055926#1 83055926#0 82828681#1 82828681#0 998124420 -82023269#6" />
    </person>
    
<person id="ped_95" depart="855.00">
        <walk edges="82829498#5 -139693509#0 -139693509#1 131620419#11 131620419#10 131620419#9 131620461#6 131620461#5 131620461#4 131620461#3 131620461#2 131620461#1 131620461#0 131620420#6 131620420#7 101085276#3" />
    </person>
    
<person id="ped_96" depart="864.00">
        <walk edges="-221613770#3 -221613770#2 -221613770#1 131620419#14 131620419#13 131620419#12 131620419#11 131620419#10 131620419#9 131620461#6 131620461#5 131620461#4 131620461#3 131620461#2 131620461#1 131620461#0 131620420#6 131620420#7" />
    </person>
    
<person id="ped_97" depart="873.00">
        <walk edges="1494627792#0 1494627791#1 82829498#14 -1494627787 83055926#2 83055926#1 -229843809 1193886814#0 1193886814#1 1193886816#2 -82828683#3 -82828683#4 -82095604#6 -134219637#0 -134219637#1 -134219637#2 134219637#3" />
    </person>
    
<person id="ped_98" depart="882.00">
        <walk edges="-100873928#1 162768628#1 162768620 1001250768#2 1001250771#2 1001250764 131243222#1 131243222#2 82826037#6" />
    </person>
    
<person id="ped_99" depart="891.00">