<?xml version="1.0" encoding="UTF-8"?>

<!-- generated on 2026-06-26 01:35:07.701896 by Eclipse SUMO randomTrips.py v0.0.0
<configuration>
    <net-file value="data/sumo/session_acc40b86723646dfa3e0df976944295d/map.net.xml"/>
    <output-trip-file value="data/sumo/session_acc40b86723646dfa3e0df976944295d/pedestrians.trips.xml"/>
    <persons value="True"/>
    <prefix value="ped_"/>
    <remove-loops value="True"/>
    <end value="900.0"/>
    <period value="9.0"/>
</configuration>
-->

<routes xmlns:xsi="http://www.w3.org/2001/XMLSchema-instance" xsi:noNamespaceSchemaLocation="http://sumo.dlr.de/xsd/routes_file.xsd">
    <person id="ped_0" depart="0.00">
        <walk from="101085459#2" to="-82828683#2"/>
    </person>
    <person id="ped_1" depart="9.00">
        <walk from="229843809" to="162768620"/>
    </person>
    <person id="ped_2" depart="18.00">
        <walk from="82023269#8" to="-1494627808#1"/>
    </person>
    <person id="ped_3" depart="27.00">
        <walk from="131620419#3" to="-131606340"/>
    </person>
    <person id="ped_4" depart="36.00">
        <walk from="-82827661#2" to="134219629#0"/>
    </person>
    <person id="ped_5" depart="45.00">
        <walk from="-82827668" to="145466562#0"/>
    </person>
    <person id="ped_6" depart="54.00">
        <walk from="1193886812#0" to="-452544756#0"/>
    </person>
    <person id="ped_7" depart="63.00">
        <walk from="82829498#11" to="1193886810#1"/>
    </person>
    <person id="ped_8" depart="72.00">
        <walk from="38084660#1" to="221613770#3"/>
    </person>
    <person id="ped_9" depart="81.00">
        <walk from="768738669#1" to="143029975#1"/>
    </person>
    <person id="ped_10" depart="90.00">
        <walk from="-144891641#3" to="-82829498#5"/>
    </person>
    <person id="ped_11" depart="99.00">
        <walk from="1280363865#2" to="-82826037#3"/>
    </person>
    <person id="ped_12" depart="108.00">
        <walk from="101085276#4" to="82827667#2"/>
    </person>
    <person id="ped_13" depart="117.00">
        <walk from="-82023267#5" to="221613770#2"/>
    </person>
    <person id="ped_14" depart="126.00">
        <walk from="-764165836" to="131243137#2"/>
    </person>
    <person id="ped_15" depart="135.00">
        <walk from="-82829498#13" to="-131606342#2"/>
    </person>
    <person id="ped_16" depart="144.00">
        <walk from="-82826037#4" to="82828683#1"/>
    </person>
    <person id="ped_17" depart="153.00">
        <walk from="82095614#6" to="131620436#2"/>
    </person>
    <person id="ped_18" depart="162.00">
        <walk from="144904133#0" to="82095604#11"/>
    </person>
    <person id="ped_19" depart="171.00">
        <walk from="131606304" to="-82827661#3"/>
    </person>
    <person id="ped_20" depart="180.00">
        <walk from="998112067#3" to="134219637#1"/>
    </person>
    <person id="ped_21" depart="189.00">
        <walk from="-162768616#2" to="-134219621#1"/>
    </person>
    <person id="ped_22" depart="198.00">
        <walk from="322870821" to="131620419#3"/>
    </person>
    <person id="ped_23" depart="207.00">
        <walk from="-134219650#1" to="131243222#2"/>
    </person>
    <person id="ped_24" depart="216.00">
        <walk from="998112067#1" to="135883976#1"/>
    </person>
    <person id="ped_25" depart="225.00">
        <walk from="83055926#2" to="764170863#2"/>
    </person>
    <person id="ped_26" depart="234.00">
        <walk from="-107899106" to="207138897#1"/>
    </person>
    <person id="ped_27" depart="243.00">
        <walk from="-229843809" to="131620420#7"/>
    </person>
    <person id="ped_28" depart="252.00">
        <walk from="131620435#0" to="82828695#2"/>
    </person>
    <person id="ped_29" depart="261.00">
        <walk from="134219617" to="-82023269#6"/>
    </person>
    <person id="ped_30" depart="270.00">
        <walk from="1494627793" to="-431917116#1"/>
    </person>
    <person id="ped_31" depart="279.00">
        <walk from="-100873928#0" to="1193885143#0"/>
    </person>
    <person id="ped_32" depart="288.00">
        <walk from="-123338829" to="82827659"/>
    </person>
    <person id="ped_33" depart="297.00">
        <walk from="107899115#1" to="-134219638#0"/>
    </person>
    <person id="ped_34" depart="306.00">
        <walk from="82023267#0" to="82828687#1"/>
    </person>
    <person id="ped_35" depart="315.00">
        <walk from="-1494627808#0" to="1336423738"/>
    </person>
    <person id="ped_36" depart="324.00">
        <walk from="131620419#4" to="-82826037#5"/>
    </person>
    <person id="ped_37" depart="333.00">
        <walk from="131620421#2" to="134219650#1"/>
    </person>
    <person id="ped_38" depart="342.00">
        <walk from="-229843827#0" to="-82828683#4"/>
    </person>
    <person id="ped_39" depart="351.00">
        <walk from="-82829498#14" to="-82827668"/>
    </person>
    <person id="ped_40" depart="360.00">
        <walk from="-82829498#13" to="82095604#8"/>
    </person>
    <person id="ped_41" depart="369.00">
        <walk from="764165839" to="-136056040#0"/>
    </person>
    <person id="ped_42" depart="378.00">
        <walk from="38084660#2" to="-82095604#4"/>
    </person>
    <person id="ped_43" depart="387.00">
        <walk from="-166980845" to="131620420#3"/>
    </person>
    <person id="ped_44" depart="396.00">
        <walk from="131620419#5" to="131620459#1"/>
    </person>
    <person id="ped_45" depart="405.00">
        <walk from="221613770#2" to="162768616#4"/>
    </person>
    <person id="ped_46" depart="414.00">
        <walk from="131606321#2" to="1193886811"/>
    </person>
    <person id="ped_47" depart="423.00">
        <walk from="-82095604#4" to="131620430#3"/>
    </person>
    <person id="ped_48" depart="432.00">
        <walk from="131620419#3" to="1011898618"/>
    </person>
    <person id="ped_49" depart="441.00">
        <walk from="-998112067#3" to="82826037#3"/>
    </person>
    <person id="ped_50" depart="450.00">
        <walk from="131620423" to="764170863#2"/>
    </person>
    <person id="ped_51" depart="459.00">
        <walk from="1428304973" to="-134219629#0"/>
    </person>
    <person id="ped_52" depart="468.00">
        <walk from="83055926#0" to="82826040"/>
    </person>
    <person id="ped_53" depart="477.00">
        <walk from="1336423738" to="-82827657#0"/>
    </person>
    <person id="ped_54" depart="486.00">
        <walk from="131606321#0" to="-134219638#1"/>
    </person>
    <person id="ped_55" depart="495.00">
        <walk from="101085276#2" to="270391522#2"/>
    </person>
    <person id="ped_56" depart="504.00">
        <walk from="131620435#1" to="131620419#4"/>
    </person>
    <person id="ped_57" depart="513.00">
        <walk from="82829498#11" to="998112066#1"/>
    </person>
    <person id="ped_58" depart="522.00">
        <walk from="-452544747" to="106982932#0"/>
    </person>
    <person id="ped_59" depart="531.00">
        <walk from="136573291#1" to="229843821"/>
    </person>
    <person id="ped_60" depart="540.00">
        <walk from="-134219637#3" to="144904133#0"/>
    </person>
    <person id="ped_61" depart="549.00">
        <walk from="-516896263" to="82829498#2"/>
    </person>
    <person id="ped_62" depart="558.00">
        <walk from="-146389951" to="-82095604#11"/>
    </person>
    <person id="ped_63" depart="567.00">
        <walk from="1494627783#0" to="162768617"/>
    </person>
    <person id="ped_64" depart="576.00">
        <walk from="-83055927#0" to="-229843826"/>
    </person>
    <person id="ped_65" depart="585.00">
        <walk from="131620419#16" to="144891641#3"/>
    </person>
    <person id="ped_66" depart="594.00">
        <walk from="134219656#3" to="82827665#1"/>
    </person>
    <person id="ped_67" depart="603.00">
        <walk from="-84898479#1" to="131606297"/>
    </person>
    <person id="ped_68" depart="612.00">
        <walk from="162768616#2" to="107899039#0"/>
    </person>
    <person id="ped_69" depart="621.00">
        <walk from="-136056040#2" to="131620436#1"/>
    </person>
    <person id="ped_70" depart="630.00">
        <walk from="998112067#4" to="998112067#1"/>
    </person>
    <person id="ped_71" depart="639.00">
        <walk from="-136056132" to="-82827657#0"/>
    </person>
    <person id="ped_72" depart="648.00">
        <walk from="101085276#2" to="82827661#3"/>
    </person>
    <person id="ped_73" depart="657.00">
        <walk from="82023267#3" to="82023267#1"/>
    </person>
    <person id="ped_74" depart="666.00">
        <walk from="1280363865#1" to="-516896263"/>
    </person>
    <person id="ped_75" depart="675.00">
        <walk from="431917116#1" to="107899034"/>
    </person>
    <person id="ped_76" depart="684.00">
        <walk from="101085369#1" to="1494627791#6"/>
    </person>
    <person id="ped_77" depart="693.00">
        <walk from="1336423741" to="82095604#8"/>
    </person>
    <person id="ped_78" depart="702.00">
        <walk from="131620419#5" to="101085476"/>
    </person>
    <person id="ped_79" depart="711.00">
        <walk from="229843815" to="1428304974"/>
    </person>
    <person id="ped_80" depart="720.00">
        <walk from="131620420#0" to="-107899088#0"/>
    </person>
    <person id="ped_81" depart="729.00">
        <walk from="-136573291#1" to="82023267#7"/>
    </person>
    <person id="ped_82" depart="738.00">
        <walk from="107899115#2" to="82095604#14"/>
    </person>
    <person id="ped_83" depart="747.00">
        <walk from="82095604#14" to="-82826037#3"/>
    </person>
    <person id="ped_84" depart="756.00">
        <walk from="265773571" to="82023267#8"/>
    </person>
    <person id="ped_85" depart="765.00">
        <walk from="-452544747" to="82827659"/>
    </person>
    <person id="ped_86" depart="774.00">
        <walk from="-131606278#1" to="229843809"/>
    </person>
    <person id="ped_87" depart="783.00">
        <walk from="1193886808#0" to="82827661#1"/>
    </person>
    <person id="ped_88" depart="792.00">
        <walk from="-82828683#1" to="431917116#1"/>
    </person>
    <person id="ped_89" depart="801.00">
        <walk from="131620439" to="107899088#1"/>
    </person>
    <person id="ped_90" depart="810.00">
        <walk from="338089194" to="-82829498#11"/>
    </person>
    <person id="ped_91" depart="819.00">
        <walk from="-131606278#0" to="-82095604#7"/>
    </person>
    <person id="ped_92" depart="828.00">
        <walk from="83055923" to="1011903165"/>
    </person>
    <person id="ped_93" depart="837.00">
        <walk from="82827672" to="-229843819"/>
    </person>
    <person id="ped_94" depart="846.00">
        <walk from="83055926#1" to="-82023269#6"/>
    </person>
    <person id="ped_95" depart="855.00">
        <walk from="82829498#5" to="101085276#3"/>
    </person>
    <person id="ped_96" depart="864.00">
        <walk from="-221613770#3" to="131620420#7"/>
    </person>
    <person id="ped_97" depart="873.00">
        <walk from="1494627792#0" to="134219637#3"/>
    </person>
    <person id="ped_98" depart="882.00">
        <walk from="-100873928#1" to="82826037#6"/>
    </person>
    <person id="ped_99" depart="891.00">
        <walk from="229843816" to="162768615#3"/>
    </person>
</routes>
