<?xml version="1.0" encoding="UTF-8"?>

<!-- generated on 2026-06-26T01:35:04.099803+03:00 by Eclipse SUMO netconvert 1.27.0
<netconvertConfiguration xmlns:xsi="http://www.w3.org/2001/XMLSchema-instance" xsi:noNamespaceSchemaLocation="http://sumo.dlr.de/xsd/netconvertConfiguration.xsd">

    <input>
        <type-files value="/Library/Frameworks/EclipseSUMO.framework/Versions/1.27.0/EclipseSUMO/share/sumo/data/typemap/osmNetconvert.typ.xml"/>
        <osm-files value="data/sumo/session_acc40b86723646dfa3e0df976944295d/map.osm.xml"/>
    </input>

    <output>
        <output-file value="data/sumo/session_acc40b86723646dfa3e0df976944295d/map.base.net.xml"/>
        <ptstop-output value="data/sumo/session_acc40b86723646dfa3e0df976944295d/public_transport.add.xml"/>
        <ptline-output value="data/sumo/session_acc40b86723646dfa3e0df976944295d/public_transport_lines.xml"/>
    </output>

    <projection>
        <proj.utm value="true"/>
    </projection>

    <processing>
        <geometry.remove value="true"/>
        <roundabouts.guess value="true"/>
    </processing>

    <tls_building>
        <tls.discard-simple value="false"/>
        <tls.guess value="true"/>
        <tls.guess-signals value="true"/>
        <tls.default-type value="actuated"/>
    </tls_building>

    <ramp_guessing>
        <ramps.guess value="true"/>
    </ramp_guessing>

    <junctions>
        <junctions.join value="true"/>
    </junctions>

    <pedestrian>
        <sidewalks.guess value="true"/>
        <crossings.guess value="true"/>
    </pedestrian>

    <formats>
        <osm.stop-output.length value="20"/>
        <osm.all-attributes value="true"/>
    </formats>

    <report>
        <no-warnings value="true"/>
    </report>

</netconvertConfiguration>
-->

<additional xmlns:xsi="http://www.w3.org/2001/XMLSchema-instance" xsi:noNamespaceSchemaLocation="http://sumo.dlr.de/xsd/additional_file.xsd">
    <busStop id="-12986619509" name="Учебный переулок" lane="-31365462#1_0" startPos="32.05" endPos="47.05" friendlyPos="true" lines="208">
        <access lane="230631729#2_0" pos="703.31" length="217.50" friendlyPos="1"/>
    </busStop>
    <busStop id="-12986619513" name="Городская многопрофильная больница № 2" lane="-31365462#1_0" startPos="375.82" endPos="390.82" friendlyPos="true" lines="208"/>
    <busStop id="-1515967925" name="Солунская улица" lane="-673555993_0" startPos="869.60" endPos="884.60" friendlyPos="true" lines="208 85"/>
    <busStop id="-258978" name="проспект Энергетиков, угол Магнитогорской улицы" lane="-597717245#0_0" startPos="150.58" endPos="165.58" friendlyPos="true" lines="123"/>
    <busStop id="-3073013378" name="железнодорожная станция «Удельная»" lane="-673555993_0" startPos="100.45" endPos="115.45" friendlyPos="true" lines="208 85"/>
    <busStop id="-3073013390" name="Репищева улица" lane="-28208222_0" startPos="45.60" endPos="60.60" friendlyPos="true" lines="208"/>
    <busStop id="-3074424760" name="станция метро «Удельная»" lane="-458935333#0_0" startPos="284.14" endPos="299.14" friendlyPos="true" lines="208 85">
        <access lane="142994906_0" pos="0.00" length="478.33" friendlyPos="1"/>
    </busStop>
    <busStop id="-3181027862" name="Центр имени Алмазова" lane="-673555993_0" startPos="474.61" endPos="489.61" friendlyPos="true" lines="208 85"/>
    <busStop id="-3181027875" name="Стадион" lane="126565549_0" startPos="442.51" endPos="457.51" friendlyPos="true" lines="208 85"/>
    <busStop id="-3400447898" name="улица Руднева (Придорожная аллея)" lane="-913797285#0_0" startPos="71.02" endPos="86.02" friendlyPos="true" lines="208 251">
        <access lane="-680446777#0_0" pos="16.14" length="146.19" friendlyPos="1"/>
        <access lane="-913797286_0" pos="59.83" length="170.38" friendlyPos="1"/>
        <access lane="913797285#0_0" pos="50.82" length="6.29" friendlyPos="1"/>
        <access lane="913797285#1_0" pos="0.00" length="118.18" friendlyPos="1"/>
    </busStop>
    <busStop id="-3400447900" name="проспект Художников" lane="-179534900#0_0" startPos="49.53" endPos="64.53" friendlyPos="true" lines="251">
        <access lane="-913797284#1_0" pos="256.86" length="157.57" friendlyPos="1"/>
        <access lane="913797283_0" pos="254.63" length="6.31" friendlyPos="1"/>
    </busStop>
    <busStop id="-3434609089" name="Выборгская улица" lane="-1353166327#0_0" startPos="6.46" endPos="21.46" friendlyPos="true" lines="86">
        <access lane="156398280#2_0" pos="279.08" length="6.67" friendlyPos="1"/>
        <access lane="157157014#1_0" pos="2741.84" length="7.10" friendlyPos="1"/>
    </busStop>
    <busStop id="-3434609091" name="Нейшлотский переулок" lane="776175415_0" startPos="231.02" endPos="246.02" friendlyPos="true" lines="86">
        <access lane="156398280#2_0" pos="581.63" length="6.75" friendlyPos="1"/>
        <access lane="157157014#1_0" pos="2438.99" length="6.89" friendlyPos="1"/>
    </busStop>
    <busStop id="-3434687931" name="улица Комиссара Смирнова" lane="-128178866#1_0" startPos="9.63" endPos="24.63" friendlyPos="true" lines="86">
        <access lane="156398280#2_0" pos="0.00" length="72.81" friendlyPos="1"/>
        <access lane="156398292#2_0" pos="484.35" length="6.28" friendlyPos="1"/>
        <access lane="157157014#1_0" pos="3070.92" length="6.74" friendlyPos="1"/>
    </busStop>
    <busStop id="-3520380909" name="Придорожная аллея" lane="-680446778#0_0" startPos="32.01" endPos="47.01" friendlyPos="true" lines="208 251">
        <access lane="154222987#1_0" pos="1865.39" length="117.61" friendlyPos="1"/>
        <access lane="154225930#1_0" pos="0.00" length="91.90" friendlyPos="1"/>
        <access lane="871967617_0" pos="45.32" length="21.31" friendlyPos="1"/>
    </busStop>
    <busStop id="-3520380928" name="улица Есенина" lane="-895243049#0_0" startPos="37.96" endPos="52.96" friendlyPos="true" lines="251">
        <access lane="154329724_0" pos="140.23" length="314.24" friendlyPos="1"/>
    </busStop>
    <busStop id="-3533402601" name="улица Прокофьева, угол улицы Композиторов" lane="-85104151#0_0" startPos="93.22" endPos="108.22" friendlyPos="true" lines="86 123 80">
        <access lane="-1282043622_0" pos="0.00" length="87.68" friendlyPos="1"/>
        <access lane="1282043622_0" pos="30.02" length="92.43" friendlyPos="1"/>
    </busStop>
    <busStop id="-3545265565" name="Глухарская улица, 5" lane="-198287566_0" startPos="261.78" endPos="276.78" friendlyPos="true" lines="85"/>
    <busStop id="-3551741944" name="улица Шостаковича" lane="-1079101534#0_0" startPos="7.52" endPos="22.52" friendlyPos="true" lines="123 80"/>
    <busStop id="-3551741978" name="улица Прокофьева" lane="144323566#1_0" startPos="317.49" endPos="332.49" friendlyPos="true" lines="123 80"/>
    <busStop id="-3551741980" name="улица Симонова" lane="85104147#1_0" startPos="456.71" endPos="471.71" friendlyPos="true" lines="123 80"/>
    <busStop id="-3564222502" name="Екатерининский проспект" lane="-697624204_0" startPos="8.67" endPos="23.67" friendlyPos="true" lines="123"/>
    <busStop id="-3564222506" name="Ортопедический центр" lane="-241540522#0_0" startPos="18.95" endPos="33.95" friendlyPos="true" lines="123"/>
    <busStop id="-3566457912" name="Бестужевская улица, 32" lane="-31371262_1" startPos="18.86" endPos="33.86" friendlyPos="true" lines="123"/>
    <busStop id="-3569803782" name="Центральная улица" lane="-192501709#1_0" startPos="448.50" endPos="463.50" friendlyPos="true" lines="259"/>
    <busStop id="-3569803786" name="железнодорожная платформа «Песочная»" lane="-872034842_0" startPos="7.47" endPos="22.47" friendlyPos="true" lines="259"/>
    <busStop id="-6482395650" name="улица Ольги Форш" lane="-31386755#1_0" startPos="3.06" endPos="18.06" friendlyPos="true" lines="208"/>
    <busStop id="-7589383958" name="Тимуровская улица, угол улицы Ушинского" lane="-200468550#5_0" startPos="11.78" endPos="26.78" friendlyPos="true" lines="208"/>
    <busStop id="-7589671751" name="улица Брянцева" lane="-200468550#2_0" startPos="14.84" endPos="29.84" friendlyPos="true" lines="208"/>
    <busStop id="-7589671754" name="Тимуровская улица, угол Светлановского проспекта" lane="-31386755#4_0" startPos="14.09" endPos="29.09" friendlyPos="true" lines="208"/>
    <busStop id="-8073005310" name="Планерная улица, 71" lane="-1068757646_0" startPos="350.91" endPos="365.91" friendlyPos="true" lines="85"/>
    <busStop id="-8128379440" name="проспект Авиаконструкторов" lane="-1204085744#0_0" startPos="17.85" endPos="32.85" friendlyPos="true" lines="85"/>
    <busStop id="-8321524351" name="улица Есенина, угол Учебного переулка" lane="-1413141070#0_0" startPos="23.99" endPos="38.99" friendlyPos="true" lines="51 208 251">
        <access lane="144904133#0_0" pos="0.00" length="38.85" friendlyPos="1"/>
    </busStop>
    <busStop id="-8321524353" name="проспект Луначарского" lane="-350642227#1_0" startPos="21.77" endPos="36.77" friendlyPos="true" lines="51 251">
        <access lane="154222995#5_0" pos="303.02" length="94.28" friendlyPos="1"/>
        <access lane="154229528#1_0" pos="375.14" length="79.66" friendlyPos="1"/>
    </busStop>
    <busStop id="-8321524355" name="Сиреневый бульвар" lane="-31364751#1_0" startPos="23.29" endPos="38.29" friendlyPos="true" lines="251"/>
    <busStop id="-8321524357" name="улица Есенина, угол проспекта Просвещения" lane="-31401559#4_0" startPos="10.77" endPos="25.77" friendlyPos="true" lines="51 251"/>
    <busStop id="-8321524358" name="Поэтический бульвар" lane="-31401559#1_0" startPos="9.20" endPos="24.20" friendlyPos="true" lines="51 251">
        <access lane="143010424#2_0" pos="1132.41" length="605.45" friendlyPos="1"/>
        <access lane="143010425#2_0" pos="334.12" length="591.38" friendlyPos="1"/>
    </busStop>
    <busStop id="-8750981363" name="Планерная улица" lane="-1204085744#0_0" startPos="315.77" endPos="330.77" friendlyPos="true" lines="85"/>
    <busStop id="-9297303883" name="Проспект Мечникова, 11" lane="-1185933455#0_0" startPos="45.98" endPos="60.98" friendlyPos="true" lines="123"/>
    <busStop id="-9893124203" name="Глухарская улица" lane="-198287566_0" startPos="21.86" endPos="36.86" friendlyPos="true" lines="85"/>
    <busStop id="-9936971671" name="Поликлиника № 117" lane="-406599273#1_0" startPos="72.52" endPos="87.52" friendlyPos="true" lines="123 80">
        <access lane="-406599272_0" pos="21.22" length="124.68" friendlyPos="1"/>
        <access lane="406599272_0" pos="0.00" length="124.69" friendlyPos="1"/>
    </busStop>
    <busStop id="10066531054" name="Толубеевский проезд" lane="1444814175#1_0" startPos="0.00" endPos="0.10" friendlyPos="true" lines="51"/>
    <busStop id="10185350596" name="проспект Тореза" lane="990965398#2_0" startPos="42.84" endPos="57.84" friendlyPos="true" lines="51"/>
    <busStop id="10185350598" name="площадь Мужества" lane="990965398#2_0" startPos="87.21" endPos="102.21" friendlyPos="true"/>
    <busStop id="10210119170" name="Придорожная аллея" lane="913797283_0" startPos="253.17" endPos="273.17" friendlyPos="true"/>
    <trainStop id="10548507501" name="Земледельческая улица" lane="769970490#1_1" startPos="472.83" endPos="497.83" friendlyPos="true" lines="20"/>
    <busStop id="10573495180" name="Новороссийская улица" lane="101549763#1_0" startPos="70.50" endPos="85.50" friendlyPos="true" lines="251"/>
    <busStop id="10576986083" name="Придорожная аллея" lane="195919185#1_0" startPos="59.52" endPos="74.52" friendlyPos="true" lines="208 251">
        <access lane="154222987#1_0" pos="1865.39" length="126.32" friendlyPos="1"/>
        <access lane="154225930#1_0" pos="0.00" length="101.44" friendlyPos="1"/>
        <access lane="871967617_0" pos="38.84" length="21.33" friendlyPos="1"/>
    </busStop>
    <busStop id="10718609198" name="железнодорожная станция «Пискарёвка»" lane="193651037_0" startPos="13.22" endPos="28.22" friendlyPos="true" lines="123 80">
        <access lane="154234439#1_0" pos="0.00" length="85.04" friendlyPos="1"/>
        <access lane="199761460#1_0" pos="2248.16" length="61.74" friendlyPos="1"/>
        <access lane="878716661#0_0" pos="41.18" length="95.69" friendlyPos="1"/>
        <access lane="878716661#1_0" pos="32.09" length="75.71" friendlyPos="1"/>
    </busStop>
    <busStop id="10780740891" name="станция метро «Политехническая»" lane="769136676#1_0" startPos="66.68" endPos="81.68" friendlyPos="true"/>
    <busStop id="10780740893" name="станция метро «Политехническая»" lane="769400946#2_0" startPos="64.67" endPos="79.67" friendlyPos="true"/>
    <busStop id="10870134697" name="вещевой рынок «Гражданский»" lane="198177506_0" startPos="514.33" endPos="529.33" friendlyPos="true" lines="272"/>
    <busStop id="10870134702" name="проспект Луначарского" lane="1079108285_0" startPos="21.22" endPos="36.22" friendlyPos="true" lines="272"/>
    <busStop id="11160222071" name="Социальный фонд" lane="31375389_0" startPos="33.26" endPos="48.26" friendlyPos="true" lines="85"/>
    <busStop id="11160222073" name="Северный мост" lane="1194297805_0" startPos="56.78" endPos="71.78" friendlyPos="true" lines="270"/>
    <trainStop id="11182739258" name="Боткинская улица" lane="330243163#1_1" startPos="344.53" endPos="369.53" friendlyPos="true" lines="20"/>
    <busStop id="1179003314" name="проспект Художников, угол улицы Сикейроса" lane="193597262#1_0" startPos="29.84" endPos="44.84" friendlyPos="true" lines="270 123 80">
        <access lane="131620418_0" pos="0.00" length="58.58" friendlyPos="1"/>
        <access lane="230631729#2_0" pos="703.31" length="127.66" friendlyPos="1"/>
    </busStop>
    <busStop id="12034821054" name="Большой Сампсониевский проспект" lane="899896418#1_0" startPos="280.15" endPos="295.15" friendlyPos="true" lines="251">
        <access lane="156398280#2_0" pos="817.14" length="483.80" friendlyPos="1"/>
        <access lane="157157014#1_0" pos="2203.37" length="470.13" friendlyPos="1"/>
    </busStop>
    <busStop id="12211906067" name="Северный проспект, угол улицы Вавиловых" lane="194972638#0_0" startPos="109.32" endPos="124.32" friendlyPos="true" lines="270">
        <access lane="194972639#1_0" pos="58.97" length="179.93" friendlyPos="1"/>
        <access lane="822525113#0_0" pos="0.00" length="195.76" friendlyPos="1"/>
        <access lane="822525113#1_0" pos="0.00" length="270.39" friendlyPos="1"/>
    </busStop>
    <busStop id="12211906068" name="Северный проспект, 65" lane="194972638#1_0" startPos="0.11" endPos="15.11" friendlyPos="true" lines="270"/>
    <busStop id="1260727504" name="Репищева улица" lane="126808210_0" startPos="6.24" endPos="21.24" friendlyPos="true" lines="208"/>
    <busStop id="12986619511" name="Городская многопрофильная больница № 2" lane="31365462#1_0" startPos="372.00" endPos="387.00" friendlyPos="true" lines="208"/>
    <busStop id="13004840943" name="Светлановский проспект, угол Северного проспекта" lane="1047320310#1_0" startPos="23.39" endPos="38.39" friendlyPos="true" lines="51"/>
    <busStop id="13004840944" name="Светлановский проспект, угол Северного проспекта" lane="198267161_0" startPos="59.27" endPos="74.27" friendlyPos="true" lines="51"/>
    <busStop id="13158402567" name="станция метро «Ладожская»" lane="984064376_0" startPos="10.40" endPos="25.40" friendlyPos="true"/>
    <busStop id="13158402568" name="станция метро «Ладожская»" lane="984064376_0" startPos="81.29" endPos="96.29" friendlyPos="true"/>
    <busStop id="13158402569" name="станция метро «Ладожская»" lane="984064376_0" startPos="143.57" endPos="158.57" friendlyPos="true"/>
    <busStop id="1387831244" name="Комендантский проспект, угол Шуваловского проспекта" lane="124801369#1_0" startPos="28.59" endPos="43.59" friendlyPos="true" lines="85">
        <access lane="1451315287_0" pos="0.00" length="120.46" friendlyPos="1"/>
    </busStop>
    <trainStop id="1396341832" name="улица Софьи Ковалевской" lane="154232027#7_1" startPos="137.12" endPos="162.12" friendlyPos="true" lines="9"/>
    <trainStop id="1448608892" name="станция метро «Лесная»" lane="157157014#1_1" startPos="394.49" endPos="419.49" friendlyPos="true" lines="20"/>
    <trainStop id="1448608896" name="Лесной проспект" lane="157157014#1_1" startPos="38.65" endPos="63.65" friendlyPos="true" lines="20"/>
    <busStop id="1456606423" name="Меншиковский проспект" lane="758110582_0" startPos="73.37" endPos="88.37" friendlyPos="true" lines="123 80">
        <access lane="199761460#1_0" pos="1416.62" length="684.09" friendlyPos="1"/>
        <access lane="878716661#1_0" pos="862.96" length="697.09" friendlyPos="1"/>
    </busStop>
    <trainStop id="1459626938" name="проспект Науки" lane="878716661#1_1" startPos="2228.05" endPos="2253.05" friendlyPos="true" lines="9"/>
    <busStop id="1460613487" name="площадь Военных Медиков" lane="1341600583#1_0" startPos="334.01" endPos="349.01" friendlyPos="true" lines="86">
        <access lane="157157014#1_0" pos="3550.00" length="530.38" friendlyPos="1"/>
    </busStop>
    <trainStop id="1564817467" name="проспект Луначарского" lane="143210210#1_1" startPos="861.95" endPos="886.95" friendlyPos="true" lines="21 20 9"/>
    <trainStop id="1564817468" name="проспект Луначарского" lane="143010424#2_1" startPos="1428.49" endPos="1453.49" friendlyPos="true" lines="21"/>
    <trainStop id="1564817470" name="станция метро «Проспект Просвещения»" lane="143010424#2_1" startPos="347.06" endPos="372.06" friendlyPos="true" lines="21"/>
    <trainStop id="1564817486" name="улица Асафьева" lane="143010425#2_1" startPos="336.24" endPos="361.24" friendlyPos="true" lines="21"/>
    <trainStop id="1564817487" name="улица Асафьева" lane="143010424#2_1" startPos="1047.41" endPos="1072.41" friendlyPos="true" lines="21"/>
    <trainStop id="1564817490" name="станция метро «Проспект Просвещения»" lane="143010425#2_1" startPos="978.37" endPos="1003.37" friendlyPos="true" lines="21"/>
    <trainStop id="1566701607" name="набережная Чёрной речки" lane="781386894_1" startPos="3464.04" endPos="3489.04" friendlyPos="true" lines="21"/>
    <trainStop id="1566791612" name="Большой Сампсониевский проспект" lane="781386894_1" startPos="5099.93" endPos="5124.93" friendlyPos="true" lines="21"/>
    <trainStop id="1566791627" name="Торжковский рынок" lane="781386894_1" startPos="4153.70" endPos="4178.70" friendlyPos="true" lines="21"/>
    <trainStop id="1566791631" name="проспект Пархоменко" lane="142986932#0_1" startPos="496.58" endPos="521.58" friendlyPos="true" lines="21 20"/>
    <trainStop id="1566791650" name="железнодорожная станция «Ланская»" lane="781386894_1" startPos="4792.16" endPos="4817.16" friendlyPos="true" lines="21"/>
    <busStop id="1566844185" name="проспект Пархоменко" lane="769970514#1_0" startPos="11.59" endPos="26.59" friendlyPos="true" lines="86">
        <access lane="142982042#5_0" pos="495.72" length="15.41" friendlyPos="1"/>
        <access lane="142986932#0_0" pos="570.03" length="0.65" friendlyPos="1"/>
    </busStop>
    <busStop id="1567006945" name="Дрезденская улица" lane="187230874#1_0" startPos="55.13" endPos="70.13" friendlyPos="true" lines="86">
        <access lane="1183496174#1_0" pos="416.23" length="13.03" friendlyPos="1"/>
        <access lane="142994346#2_0" pos="1019.71" length="0.81" friendlyPos="1"/>
    </busStop>
    <trainStop id="1567006947" name="Енотаевская улица" lane="142994346#2_1" startPos="1361.44" endPos="1386.44" friendlyPos="true" lines="21 20"/>
    <trainStop id="1567006959" name="Манчестерская улица" lane="142994346#2_1" startPos="687.62" endPos="712.62" friendlyPos="true" lines="21 20"/>
    <busStop id="1567006961" name="Манчестерская улица" lane="161777264#1_0" startPos="10.91" endPos="25.91" friendlyPos="true" lines="86">
        <access lane="1183496174#1_0" pos="682.67" length="12.29" friendlyPos="1"/>
        <access lane="142994346#2_0" pos="753.28" length="1.51" friendlyPos="1"/>
    </busStop>
    <trainStop id="1567006962" name="Удельный парк" lane="142994346#2_1" startPos="71.76" endPos="96.76" friendlyPos="true" lines="21 20"/>
    <busStop id="1567006964" name="Удельный парк" lane="769970522#3_0" startPos="16.82" endPos="31.82" friendlyPos="true" lines="86">
        <access lane="1183496174#1_0" pos="1304.56" length="13.78" friendlyPos="1"/>
        <access lane="142982042#5_0" pos="0.00" length="197.54" friendlyPos="1"/>
        <access lane="142986932#0_0" pos="1065.71" length="197.08" friendlyPos="1"/>
        <access lane="142994346#2_0" pos="131.38" length="0.03" friendlyPos="1"/>
    </busStop>
    <busStop id="1567056881" name="Елецкая улица" lane="187230874#3_0" startPos="82.14" endPos="97.14" friendlyPos="true" lines="86">
        <access lane="1183496172#0_0" pos="0.00" length="52.26" friendlyPos="1"/>
        <access lane="1183496173#2_0" pos="0.20" length="59.88" friendlyPos="1"/>
        <access lane="1183496174#0_0" pos="0.00" length="50.62" friendlyPos="1"/>
        <access lane="142994912#0_0" pos="29.99" length="0.81" friendlyPos="1"/>
        <access lane="706489492#10_0" pos="83.96" length="13.10" friendlyPos="1"/>
    </busStop>
    <trainStop id="1567056885" name="Рашетова улица" lane="142994912#2_1" startPos="214.24" endPos="239.24" friendlyPos="true" lines="21 20 9"/>
    <busStop id="1567210080" name="Олонецкая улица" lane="194972656#1_1" startPos="255.17" endPos="270.17" friendlyPos="true" lines="208 86 85"/>
    <trainStop id="1567210099" name="Олонецкая улица" lane="142994912#2_1" startPos="536.26" endPos="561.26" friendlyPos="true" lines="21 20 9"/>
    <trainStop id="1567210114" name="Поклонная гора" lane="142994912#8_1" startPos="135.61" endPos="160.61" friendlyPos="true" lines="21 20 9"/>
    <busStop id="1567210131" name="Поклонная гора" lane="327576191#2_0" startPos="1.35" endPos="16.35" friendlyPos="true" lines="208 86 85">
        <access lane="131620419#9_0" pos="9.15" length="10.21" friendlyPos="1"/>
        <access lane="131620461#4_0" pos="0.20" length="18.83" friendlyPos="1"/>
        <access lane="131620461#5_0" pos="0.20" length="18.51" friendlyPos="1"/>
        <access lane="131620461#6_0" pos="0.00" length="19.07" friendlyPos="1"/>
        <access lane="142994912#9_0" pos="8.75" length="7.42" friendlyPos="1"/>
    </busStop>
    <trainStop id="1567210134" name="Поклонная гора" lane="706489492#2_1" startPos="137.44" endPos="162.44" friendlyPos="true" lines="20 9 21"/>
    <busStop id="1567210136" name="улица Есенина, угол улицы Сикейроса" lane="1112134939#1_0" startPos="20.69" endPos="35.69" friendlyPos="true" lines="208 270 123 80">
        <access lane="-229843824#1_0" pos="18.02" length="42.91" friendlyPos="1"/>
        <access lane="131620421#6_0" pos="57.77" length="45.36" friendlyPos="1"/>
        <access lane="131620421#7_0" pos="18.03" length="20.88" friendlyPos="1"/>
        <access lane="144919194#1_0" pos="123.22" length="38.75" friendlyPos="1"/>
        <access lane="82827665#1_0" pos="58.65" length="29.00" friendlyPos="1"/>
    </busStop>
    <busStop id="1567210154" name="Рашетова улица" lane="194972656#1_1" startPos="10.82" endPos="25.82" friendlyPos="true" lines="208 86 85"/>
    <busStop id="1567210171" name="улица Сикейроса, угол проспекта Энгельса" lane="1112134922#1_0" startPos="1.19" endPos="16.19" friendlyPos="true" lines="208 272 270 123 80">
        <access lane="-82829498#1_0" pos="0.31" length="21.85" friendlyPos="1"/>
        <access lane="-82829498#2_0" pos="63.41" length="27.23" friendlyPos="1"/>
        <access lane="131620419#17_0" pos="8.70" length="8.57" friendlyPos="1"/>
        <access lane="131620430#3_0" pos="7.87" length="19.55" friendlyPos="1"/>
        <access lane="82829498#1_0" pos="0.00" length="26.38" friendlyPos="1"/>
    </busStop>
    <busStop id="1567256712" name="станция метро «Озерки»" lane="1079110793#1_0" startPos="30.77" endPos="45.77" friendlyPos="true" lines="270 86 123 80">
        <access lane="131620457#3_0" pos="24.55" length="86.53" friendlyPos="1"/>
        <access lane="143210210#1_0" pos="72.44" length="11.15" friendlyPos="1"/>
        <access lane="154229527#0_0" pos="828.73" length="24.96" friendlyPos="1"/>
        <access lane="380470383_0" pos="98.27" length="99.04" friendlyPos="1"/>
        <access lane="84898479#1_0" pos="0.00" length="114.30" friendlyPos="1"/>
    </busStop>
    <trainStop id="1567256741" name="станция метро «Озерки»" lane="143210210#1_1" startPos="91.74" endPos="116.74" friendlyPos="true" lines="21 20 9"/>
    <busStop id="1568718438" name="станция метро «Озерки»" lane="1085753086#1_0" startPos="45.98" endPos="60.98" friendlyPos="true" lines="272 270 123 80 86 85">
        <access lane="131620457#3_0" pos="24.55" length="107.67" friendlyPos="1"/>
        <access lane="143210210#1_0" pos="71.92" length="24.95" friendlyPos="1"/>
        <access lane="154229527#0_0" pos="829.24" length="11.14" friendlyPos="1"/>
        <access lane="154229527#1_0" pos="0.00" length="120.40" friendlyPos="1"/>
        <access lane="380470383_0" pos="98.27" length="113.84" friendlyPos="1"/>
    </busStop>
    <trainStop id="1568718443" name="станция метро «Озерки»" lane="154229527#0_1" startPos="840.26" endPos="865.26" friendlyPos="true" lines="20 9 21"/>
    <busStop id="1568718451" name="станция метро «Озерки»" lane="759797002_0" startPos="22.83" endPos="37.83" friendlyPos="true" lines="259 85">
        <access lane="-101085459#3_0" pos="0.00" length="188.00" friendlyPos="1"/>
        <access lane="101085301#1_0" pos="140.57" length="55.56" friendlyPos="1"/>
        <access lane="101085352_0" pos="31.97" length="193.62" friendlyPos="1"/>
        <access lane="101085459#3_0" pos="7.14" length="185.22" friendlyPos="1"/>
        <access lane="101085476_0" pos="141.02" length="48.73" friendlyPos="1"/>
    </busStop>
    <busStop id="1568835869" name="Олонецкая улица" lane="773805391#1_1" startPos="14.22" endPos="29.22" friendlyPos="true" lines="208 86 85"/>
    <trainStop id="1568835871" name="Олонецкая улица" lane="706489492#6_1" startPos="609.10" endPos="634.10" friendlyPos="true" lines="20 9 21"/>
    <trainStop id="1568835873" name="Елецкая улица" lane="706489492#10_1" startPos="25.85" endPos="50.85" friendlyPos="true" lines="20 9 21"/>
    <busStop id="1568835874" name="Поклонная гора" lane="142997518#1_0" startPos="14.32" endPos="29.32" friendlyPos="true" lines="208 86 85">
        <access lane="101085369#1_0" pos="9.13" length="24.17" friendlyPos="1"/>
        <access lane="131620420#4_0" pos="35.72" length="15.60" friendlyPos="1"/>
        <access lane="131620420#5_0" pos="0.00" length="25.68" friendlyPos="1"/>
        <access lane="414530643_0" pos="1.19" length="25.45" friendlyPos="1"/>
        <access lane="706489492#3_0" pos="21.55" length="11.94" friendlyPos="1"/>
    </busStop>
    <busStop id="1568835876" name="Рашетова улица" lane="949609183#1_0" startPos="17.60" endPos="32.60" friendlyPos="true" lines="208 86 85">
        <access lane="142994912#2_0" pos="222.57" length="14.53" friendlyPos="1"/>
        <access lane="194972656#1_0" pos="0.00" length="70.22" friendlyPos="1"/>
        <access lane="706489492#7_0" pos="350.37" length="0.71" friendlyPos="1"/>
        <access lane="773805391#1_0" pos="305.84" length="67.17" friendlyPos="1"/>
    </busStop>
    <trainStop id="1568835880" name="Рашетова улица" lane="706489492#7_1" startPos="262.13" endPos="287.13" friendlyPos="true" lines="20 9 21"/>
    <busStop id="1568857745" name="Дрезденская улица" lane="773805382#1_0" startPos="152.97" endPos="167.97" friendlyPos="true" lines="86">
        <access lane="1183496174#1_0" pos="408.96" length="0.60" friendlyPos="1"/>
        <access lane="142994346#2_0" pos="1026.99" length="13.25" friendlyPos="1"/>
    </busStop>
    <busStop id="1568857747" name="Манчестерская улица" lane="1499844366#1_0" startPos="14.22" endPos="29.22" friendlyPos="true" lines="86">
        <access lane="1183496174#1_0" pos="744.42" length="0.17" friendlyPos="1"/>
        <access lane="142994346#2_0" pos="691.51" length="13.64" friendlyPos="1"/>
    </busStop>
    <trainStop id="1568857753" name="Манчестерская улица" lane="1183496174#1_1" startPos="674.52" endPos="699.52" friendlyPos="true" lines="20 21"/>
    <trainStop id="1568857759" name="Удельный парк" lane="1183496174#1_1" startPos="1251.20" endPos="1276.20" friendlyPos="true" lines="20 21"/>
    <busStop id="1568857770" name="Удельный парк" lane="552045023#1_0" startPos="5.97" endPos="20.97" friendlyPos="true" lines="86">
        <access lane="1183496174#1_0" pos="1342.61" length="0.11" friendlyPos="1"/>
        <access lane="142982042#5_0" pos="0.00" length="139.98" friendlyPos="1"/>
        <access lane="142986932#0_0" pos="1065.71" length="140.69" friendlyPos="1"/>
        <access lane="142994346#2_0" pos="93.33" length="13.93" friendlyPos="1"/>
    </busStop>
    <busStop id="1568857773" name="Енотаевская улица" lane="1189402238#1_0" startPos="25.19" endPos="40.19" friendlyPos="true" lines="86">
        <access lane="1183496172#1_0" pos="1.32" length="110.52" friendlyPos="1"/>
        <access lane="1183496173#1_0" pos="0.00" length="110.05" friendlyPos="1"/>
        <access lane="1183496174#1_0" pos="68.03" length="0.86" friendlyPos="1"/>
        <access lane="142994346#2_0" pos="1367.92" length="13.06" friendlyPos="1"/>
        <access lane="142994906_0" pos="6.58" length="96.94" friendlyPos="1"/>
    </busStop>
    <trainStop id="1568937307" name="набережная Чёрной речки" lane="142986938#1_1" startPos="1678.50" endPos="1703.50" friendlyPos="true" lines="21"/>
    <trainStop id="1568937309" name="Новосибирская улица" lane="142986938#1_1" startPos="1303.53" endPos="1328.53" friendlyPos="true" lines="21"/>
    <busStop id="1568937311" name="Торжковский рынок" lane="142986938#1_1" startPos="884.60" endPos="909.60" friendlyPos="true" lines="21"/>
    <busStop id="1568937313" name="проспект Пархоменко" lane="769970510#1_0" startPos="9.38" endPos="24.38" friendlyPos="true" lines="86">